Version 4
SHEET 1 880 680
WIRE 0 -256 -48 -256
WIRE -48 -192 -48 -256
WIRE -48 -48 -48 -112
WIRE 320 -48 272 -48
WIRE 352 -48 320 -48
WIRE 352 16 352 -48
WIRE 544 48 528 48
WIRE 560 48 544 48
WIRE -48 80 -64 80
WIRE -32 80 -48 80
WIRE -64 144 -64 80
WIRE 352 144 352 96
WIRE 416 144 352 144
WIRE 528 144 528 48
WIRE 528 144 496 144
WIRE 688 144 592 144
WIRE 352 192 352 144
WIRE 688 224 688 144
WIRE -64 288 -64 224
WIRE 352 336 352 272
FLAG -48 -48 0
FLAG -64 288 0
FLAG 352 336 0
FLAG 688 224 0
FLAG 544 48 vmeasure
FLAG -48 80 vfg2
FLAG 320 -48 vfg
FLAG 0 -256 vfg
SYMBOL voltage -48 -208 R0
WINDOW 123 0 0 Left 0
WINDOW 39 0 0 Left 0
SYMATTR InstName V1
SYMATTR Value PULSE(0 5 0 0.1n 0.1n 0.5m 1m)
SYMBOL voltage -64 128 R0
WINDOW 123 0 0 Left 0
WINDOW 39 0 0 Left 0
SYMATTR InstName V2
SYMATTR Value SINE(2.5 2.5 10000)
SYMBOL res 336 176 R0
SYMATTR InstName R1
SYMATTR Value 1k
SYMBOL res 336 0 R0
SYMATTR InstName R2
SYMATTR Value 1k
SYMBOL res 512 128 R90
WINDOW 0 0 56 VBottom 2
WINDOW 3 32 56 VTop 2
SYMATTR InstName R3
SYMATTR Value 470
SYMBOL cap 592 128 R90
WINDOW 0 0 32 VBottom 2
WINDOW 3 32 32 VTop 2
SYMATTR InstName C1
SYMATTR Value 330n
TEXT -96 360 Left 2 !.tran 1.5ms\n;.ac dec 100 1 10k\n \n.param RA=1k
